Circuit: * C:\Gedeeld\Project\Git\Normalization\LTspice\Draft1.asc

Direct Newton iteration for .op point succeeded.

Date: Tue Apr 10 18:05:58 2018
Total elapsed time: 0.125 seconds.

tnom = 27
temp = 27
method = modified trap
totiter = 2412
traniter = 2397
tranpoints = 1139
accept = 1106
rejected = 33
matrix size = 10
fillins = 10
solver = Normal
Matrix Compiler1: 914 bytes object code size  0.4/0.2/[0.2]
Matrix Compiler2: off  [0.2]/0.4/0.3

