Circuit: * C:\Gedeeld\Project\Git\Normalization\LTspice\Final_design.asc

WARNING: Node U1:1:U11:VP1 is floating.
WARNING: Node U1:1:14 is floating.
WARNING: Node U1:1:U11:VP2 is floating.
WARNING: Node U1:1:U11:VP3 is floating.
WARNING: Node U1:1:U11:VP4 is floating.
WARNING: Node U1:1:U11:VZ1 is floating.
WARNING: Node U1:1:U11:VZ2 is floating.
WARNING: Node U1:1:U11:VZ3 is floating.
WARNING: Node U1:1:U11:VZ4 is floating.
WARNING: Node U1:1:9 is floating.

Direct Newton iteration failed to find .op point.  (Use ".option noopiter" to skip.)
Starting Gmin stepping
Gmin = 10
Gmin = 1.07374
Gmin = 0.115292
Gmin = 0.0123794
Gmin = 0.00132923
Gmin = 0.000142725
Gmin = 1.5325e-005
Gmin = 1.6455e-006
Gmin = 1.76685e-007
vernier = 0.5
vernier = 0.25
Gmin = 5.14632e-008
vernier = 0.125
vernier = 0.0625
vernier = 0.03125
vernier = 0.015625
Gmin = 4.91359e-008
vernier = 0.0078125
vernier = 0.00390625
vernier = 0.00195313
vernier = 0.000976563
Gmin = 4.88493e-008
vernier = 0.000488281
vernier = 0.000651042
Gmin = 4.87917e-008
vernier = 0.000868055
Gmin = 4.86965e-008
vernier = 0.00115741
vernier = 0.00154321
Gmin = 4.85371e-008
vernier = 0.00205761
vernier = 0.00274348
Gmin = 4.8284e-008
vernier = 0.00365797
Gmin = 4.78884e-008
vernier = 0.0048773
vernier = 0.00650306
Gmin = 4.72316e-008
vernier = 0.00867074
vernier = 0.011561
Gmin = 4.62033e-008
vernier = 0.0154146
Gmin = 4.4631e-008
vernier = 0.0205529
vernier = 0.0274038
Gmin = 4.21135e-008
vernier = 0.0365384
vernier = 0.0487178
Gmin = 3.83956e-008
vernier = 0.0649571
Gmin = 3.32105e-008
vernier = 0.0866095
vernier = 0.115479
Gmin = 2.60624e-008
vernier = 0.153972
vernier = 0.205296
Gmin = 1.77582e-008
vernier = 0.273728
Gmin = 9.77172e-009
vernier = 0.364971
vernier = 0.486628
Gmin = 3.65597e-009
vernier = 0.648837
vernier = 0.865116
Gmin = 7.97095e-010
vernier = 1
Gmin = 9.5481e-011
Gmin = 1.02522e-011
Gmin = 1.10082e-012
Gmin = 1.182e-013
Gmin = 0
Gmin stepping succeeded in finding the operating point.


Date: Mon Apr 16 14:51:06 2018
Total elapsed time: 0.303 seconds.

tnom = 27
temp = 27
method = trap
totiter = 1967
traniter = 0
tranpoints = 0
accept = 0
rejected = 0
matrix size = 80
fillins = 36
solver = Normal
Matrix Compiler1:     298 opcodes
Matrix Compiler2: 6.99 KB object code size  1.0/1.4/[0.7]

