Circuit: * C:\Users\Claudia\Desktop\Normalization_test.asc

WARNING: Node U1:1:U11:VP1 is floating.
WARNING: Node U1:1:14 is floating.
WARNING: Node U1:1:U11:VP2 is floating.
WARNING: Node U1:1:U11:VP3 is floating.
WARNING: Node U1:1:U11:VP4 is floating.
WARNING: Node U1:1:U11:VZ1 is floating.
WARNING: Node U1:1:U11:VZ2 is floating.
WARNING: Node U1:1:U11:VZ3 is floating.
WARNING: Node U1:1:U11:VZ4 is floating.
WARNING: Node U1:1:9 is floating.

Direct Newton iteration failed to find .op point.  (Use ".option noopiter" to skip.)
Starting Gmin stepping
Gmin = 10
Gmin = 1.07374
Gmin = 0.115292
Gmin = 0.0123794
Gmin = 0.00132923
Gmin = 0.000142725
Gmin = 1.5325e-005
Gmin = 1.6455e-006
Gmin = 1.76685e-007
vernier = 0.5
Gmin = 3.6596e-008
vernier = 0.25
vernier = 0.125
vernier = 0.0625
vernier = 0.03125
Gmin = 3.9004e-008
vernier = 0.015625
vernier = 0.0078125
vernier = 0.00390625
Gmin = 3.87386e-008
vernier = 0.00520833
vernier = 0.00694444
Gmin = 3.82296e-008
vernier = 0.00925925
Gmin = 3.74422e-008
vernier = 0.0123457
vernier = 0.0164609
Gmin = 3.61574e-008
vernier = 0.0219478
vernier = 0.0292638
Gmin = 3.42011e-008
vernier = 0.0390184
Gmin = 3.13387e-008
vernier = 0.0520245
vernier = 0.0693659
Gmin = 2.70734e-008
vernier = 0.0924879
vernier = 0.123317
Gmin = 2.1462e-008
vernier = 0.164423
Gmin = 1.49264e-008
vernier = 0.21923
vernier = 0.292307
Gmin = 8.1732e-009
vernier = 0.389743
vernier = 0.519657
Gmin = 3.18247e-009
vernier = 0.692876
Gmin = 7.48701e-010
vernier = 0.923834
vernier = 1
Gmin = 8.81471e-011
Gmin = 9.46473e-012
Gmin = 1.01627e-012
Gmin = 1.09121e-013
Gmin = 0
Gmin stepping succeeded in finding the operating point.


Date: Wed Mar 28 12:46:16 2018
Total elapsed time: 0.353 seconds.

tnom = 27
temp = 27
method = Gear
totiter = 12201
traniter = 10617
tranpoints = 2186
accept = 1629
rejected = 557
matrix size = 73
fillins = 50
solver = Normal
Thread vector: 9.5/8.3[2] 2.8/2.0[2] 5.4/3.5[2] 0.3/1.1[1]  2592/500
Matrix Compiler1: 4.85 KB object code size  1.3/0.6/[0.4]
Matrix Compiler2: 6.66 KB object code size  1.9/2.4/[0.5]


