Circuit: * C:\Gedeeld\Project\Git\Normalization\LTspice\Test.asc

WARNING: Node U1:1:U11:VP1 is floating.
WARNING: Node U1:1:14 is floating.
WARNING: Node U1:1:U11:VP2 is floating.
WARNING: Node U1:1:U11:VP3 is floating.
WARNING: Node U1:1:U11:VP4 is floating.
WARNING: Node U1:1:U11:VZ1 is floating.
WARNING: Node U1:1:U11:VZ2 is floating.
WARNING: Node U1:1:U11:VZ3 is floating.
WARNING: Node U1:1:U11:VZ4 is floating.
WARNING: Node U1:1:9 is floating.

Direct Newton iteration failed to find .op point.  (Use ".option noopiter" to skip.)
Starting Gmin stepping
Gmin = 10
Gmin = 1.07374
vernier = 0.5
vernier = 0.25
vernier = 0.125
Gmin = 0.717975
vernier = 0.166667
vernier = 0.222222
Gmin = 0.485472
vernier = 0.296296
Gmin = 0.259172
vernier = 0.395061
vernier = 0.526748
Gmin = 0.0946116
vernier = 0.702331
vernier = 0.936441
Gmin = 0.0200397
vernier = 1
Gmin = 0.00229389
Gmin = 0.000246304
Gmin = 2.64467e-005
Gmin = 2.8397e-006
Gmin = 3.0491e-007
Gmin = 3.27395e-008
Gmin = 3.51537e-009
Gmin = 3.7746e-010
Gmin = 4.05295e-011
Gmin = 4.35182e-012
Gmin = 4.67273e-013
Gmin = 0
Gmin stepping succeeded in finding the operating point.


Date: Sun Apr 01 22:11:57 2018
Total elapsed time: 0.606 seconds.

tnom = 27
temp = 27
method = modified trap
totiter = 10280
traniter = 9255
tranpoints = 1986
accept = 1470
rejected = 516
matrix size = 72
fillins = 38
solver = Normal
Thread vector: 43.8/22.2[2] 8.5/5.4[2] 12.5/9.2[2] 1.8/3.6[1]  2592/500
Matrix Compiler1: 4.76 KB object code size  4.7/2.2/[1.2]
Matrix Compiler2: 6.39 KB object code size  3.3/4.1/[1.7]

