Circuit: * D:\GitHub\ouisician\Normalization\LTspice\Test.asc

WARNING: Node U1:1:U11:VP1 is floating.
WARNING: Node U1:1:14 is floating.
WARNING: Node U1:1:U11:VP2 is floating.
WARNING: Node U1:1:U11:VP3 is floating.
WARNING: Node U1:1:U11:VP4 is floating.
WARNING: Node U1:1:U11:VZ1 is floating.
WARNING: Node U1:1:U11:VZ2 is floating.
WARNING: Node U1:1:U11:VZ3 is floating.
WARNING: Node U1:1:U11:VZ4 is floating.
WARNING: Node U1:1:9 is floating.

Direct Newton iteration failed to find .op point.  (Use ".option noopiter" to skip.)
Starting Gmin stepping
Gmin = 10
Gmin = 1.07374
Gmin = 0.115292
Gmin = 0.0123794
Gmin = 0.00132923
Gmin = 0.000142725
Gmin = 1.5325e-005
Gmin = 1.6455e-006
Gmin = 1.76685e-007
Gmin = 1.89714e-008
Gmin = 2.03704e-009
Gmin = 2.18725e-010
Gmin = 2.34854e-011
Gmin = 2.52173e-012
Gmin = 2.70769e-013
Gmin = 0
Gmin stepping succeeded in finding the operating point.

Heightened Def Con from 0.0300018 to 0.0300018
Heightened Def Con from 0.0300018 to 0.0300018
Heightened Def Con from 0.0300018 to 0.0300018
Heightened Def Con from 0.0300018 to 0.0300018
Heightened Def Con from 0.0300018 to 0.0300018
Heightened Def Con from 0.0300018 to 0.0300018
Heightened Def Con from 0.0300018 to 0.0300018
Heightened Def Con from 0.0300018 to 0.0300018
Heightened Def Con from 0.0300018 to 0.0300018
Heightened Def Con from 0.0349982 ++++++++++++++++++to 0.0349982
Heightened Def Con from 0.0349982 ++++++++to 0.0349982
Heightened Def Con from 0.0349982 +++to 0.0349982
Heightened Def Con from 0.0349982 +++to 0.0349982
Heightened Def Con from 0.0400018 to 0.0400018
Heightened Def Con from 0.0400018 to 0.0400018
Heightened Def Con from 0.0400018 to 0.0400018
Heightened Def Con from 0.0400018 to 0.0400018
Heightened Def Con from 0.0500018 ++++++++++++++++++to 0.0500018
Heightened Def Con from 0.0500018 +++++++to 0.0500018
Heightened Def Con from 0.0500018 +++to 0.0500018
Heightened Def Con from 0.0500018 +++to 0.0500018
Heightened Def Con from 0.0500018 +++to 0.0500018
Heightened Def Con from 0.0600018 ++++++++++++++++++to 0.0600018
Heightened Def Con from 0.0600018 +++++++to 0.0600018
Heightened Def Con from 0.0600018 +++to 0.0600018
Heightened Def Con from 0.0600018 +++to 0.0600018
Heightened Def Con from 0.0600018 +++to 0.0600018
Heightened Def Con from 0.0700018 ++++++++++++++++++to 0.0700018
Heightened Def Con from 0.0700018 +++++++to 0.0700018
Heightened Def Con from 0.0700018 +++to 0.0700018
Heightened Def Con from 0.0700018 +++to 0.0700018
Heightened Def Con from 0.0700018 +++to 0.0700018
Heightened Def Con from 0.0749982 ++++++++++++++++++to 0.0749982
Heightened Def Con from 0.0749982 ++++++++to 0.0749982
Heightened Def Con from 0.0749982 +++to 0.0749982
Heightened Def Con from 0.0749982 +++to 0.0749982
Heightened Def Con from 0.0800018 ++++++++++++++++++to 0.0800018
Heightened Def Con from 0.0800018 +++++++to 0.0800018
Heightened Def Con from 0.0800018 +++to 0.0800018
Heightened Def Con from 0.0800018 +++to 0.0800018
Heightened Def Con from 0.0800018 +++to 0.0800018
Heightened Def Con from 0.0849982 to 0.0849982
Heightened Def Con from 0.0849982 ++++++++++++++++++to 0.0849982
Heightened Def Con from 0.0849982 ++++++++to 0.0849982
Heightened Def Con from 0.0849982 +++to 0.0849982
Heightened Def Con from 0.0849982 +++to 0.0849982
Heightened Def Con from 0.0900018 ++++++++++++++++++to 0.0900018
Heightened Def Con from 0.0900018 +++++++to 0.0900018
Heightened Def Con from 0.0900018 +++to 0.0900018
Heightened Def Con from 0.0900018 +++to 0.0900018
Heightened Def Con from 0.0900018 +++to 0.0900018

<<<<<<< HEAD
Date: Sun Apr 01 22:11:57 2018
Total elapsed time: 0.606 seconds.
=======
Date: Thu Mar 29 15:07:32 2018
Total elapsed time: 0.660 seconds.
>>>>>>> 5a0c7c4fff5da166dd5a9e6e4102438b33c9ab7a

tnom = 27
temp = 27
method = modified trap
<<<<<<< HEAD
totiter = 10280
traniter = 9255
tranpoints = 1986
accept = 1470
rejected = 516
matrix size = 72
fillins = 38
solver = Normal
Thread vector: 43.8/22.2[2] 8.5/5.4[2] 12.5/9.2[2] 1.8/3.6[1]  2592/500
Matrix Compiler1: 4.76 KB object code size  4.7/2.2/[1.2]
Matrix Compiler2: 6.39 KB object code size  3.3/4.1/[1.7]
=======
totiter = 57932
traniter = 57513
tranpoints = 8344
accept = 4459
rejected = 4202
matrix size = 71
fillins = 38
solver = Normal
Thread vector: 10.2/6.8[2] 2.3/2.2[1] 2.6/2.5[1] 0.3/1.1[1]  2592/500
Matrix Compiler1: 4.70 KB object code size  1.3/0.6/[0.3]
Matrix Compiler2: 6.18 KB object code size  0.7/1.0/[0.5]

>>>>>>> 5a0c7c4fff5da166dd5a9e6e4102438b33c9ab7a

