Circuit: * D:\GitHub\ouisician\Normalization\LTspice\Test.asc

Direct Newton iteration for .op point succeeded.

<<<<<<< HEAD
Date: Fri Mar 23 14:30:55 2018
Total elapsed time: 0.062 seconds.
=======
Direct Newton iteration failed to find .op point.  (Use ".option noopiter" to skip.)
Starting Gmin stepping
Gmin = 10
Gmin = 1.07374
Gmin = 0.115292
Gmin = 0.0123794
Gmin = 0.00132923
Gmin = 0.000142725
Gmin = 1.5325e-005
Gmin = 1.6455e-006
Gmin = 1.76685e-007
Gmin = 1.89714e-008
Gmin = 2.03704e-009
Gmin = 2.18725e-010
Gmin = 2.34854e-011
Gmin = 2.52173e-012
Gmin = 2.70769e-013
Gmin = 0
Gmin stepping succeeded in finding the operating point.


Date: Fri Mar 23 12:18:53 2018
Total elapsed time: 16.952 seconds.
>>>>>>> 91b562f12c6223f61629e726d601d76402d0d600

tnom = 27
temp = 27
method = modified trap
<<<<<<< HEAD
totiter = 2791
traniter = 2769
tranpoints = 720
accept = 497
rejected = 223
matrix size = 52
fillins = 20
solver = Normal
Matrix Compiler1: 2.79 KB object code size  1.1/0.6/[0.2]
Matrix Compiler2: off  [0.5]/1.3/2.6
=======
totiter = 1119718
traniter = 1119302
tranpoints = 238442
accept = 176370
rejected = 62072
matrix size = 72
fillins = 39
solver = Normal
Thread vector: 10.1/7.8[2] 3.0/2.3[2] 2.7/1.8[2] 0.7/1.4[1]  2592/500
Matrix Compiler1: 4.64 KB object code size  1.4/0.6/[0.4]
Matrix Compiler2: 6.46 KB object code size  0.8/1.1/[0.5]

>>>>>>> 91b562f12c6223f61629e726d601d76402d0d600

