Circuit: * C:\Gedeeld\Project\Git\Normalization\LTspice\Test.asc

WARNING: Node U1:1:U11:VP1 is floating.
WARNING: Node U1:1:14 is floating.
WARNING: Node U1:1:U11:VP2 is floating.
WARNING: Node U1:1:U11:VP3 is floating.
WARNING: Node U1:1:U11:VP4 is floating.
WARNING: Node U1:1:U11:VZ1 is floating.
WARNING: Node U1:1:U11:VZ2 is floating.
WARNING: Node U1:1:U11:VZ3 is floating.
WARNING: Node U1:1:U11:VZ4 is floating.
WARNING: Node U1:1:9 is floating.

Direct Newton iteration failed to find .op point.  (Use ".option noopiter" to skip.)
Starting Gmin stepping
Gmin = 10
Gmin = 1.07374
Gmin = 0.115292
Gmin = 0.0123794
Gmin = 0.00132923
Gmin = 0.000142725
Gmin = 1.5325e-005
Gmin = 1.6455e-006
Gmin = 1.76685e-007
Gmin = 1.89714e-008
Gmin = 2.03704e-009
Gmin = 2.18725e-010
Gmin = 2.34854e-011
Gmin = 2.52173e-012
Gmin = 2.70769e-013
Gmin = 0
Gmin stepping succeeded in finding the operating point.


Date: Fri Mar 23 14:39:45 2018
Total elapsed time: 0.199 seconds.

tnom = 27
temp = 27
method = modified trap
totiter = 12354
traniter = 11938
tranpoints = 2653
accept = 2011
rejected = 642
matrix size = 72
fillins = 39
solver = Normal
Thread vector: 27.7/6.6[2] 1.7/1.5[2] 5.1/2.5[2] 0.7/1.1[1]  2592/500
Matrix Compiler1: 4.64 KB object code size  1.7/0.6/[0.4]
Matrix Compiler2: off  [0.8]/1.1/1.9

