Circuit: * D:\GitHub\ouisician\Normalization\LTspice\Test.asc

WARNING: Node U1:1:U11:VP1 is floating.
WARNING: Node U1:1:14 is floating.
WARNING: Node U1:1:U11:VP2 is floating.
WARNING: Node U1:1:U11:VP3 is floating.
WARNING: Node U1:1:U11:VP4 is floating.
WARNING: Node U1:1:U11:VZ1 is floating.
WARNING: Node U1:1:U11:VZ2 is floating.
WARNING: Node U1:1:U11:VZ3 is floating.
WARNING: Node U1:1:U11:VZ4 is floating.
WARNING: Node U1:1:9 is floating.

Direct Newton iteration failed to find .op point.  (Use ".option noopiter" to skip.)
Starting Gmin stepping
Gmin = 10
Gmin = 1.07374
Gmin = 0.115292
Gmin = 0.0123794
Gmin = 0.00132923
Gmin = 0.000142725
Gmin = 1.5325e-005
Gmin = 1.6455e-006
Gmin = 1.76685e-007
Gmin = 1.89714e-008
Gmin = 2.03704e-009
Gmin = 2.18725e-010
Gmin = 2.34854e-011
Gmin = 2.52173e-012
Gmin = 2.70769e-013
Gmin = 0
Gmin stepping succeeded in finding the operating point.


Date: Fri Mar 23 12:18:53 2018
Total elapsed time: 16.952 seconds.

tnom = 27
temp = 27
method = modified trap
totiter = 1119718
traniter = 1119302
tranpoints = 238442
accept = 176370
rejected = 62072
matrix size = 72
fillins = 39
solver = Normal
Thread vector: 10.1/7.8[2] 3.0/2.3[2] 2.7/1.8[2] 0.7/1.4[1]  2592/500
Matrix Compiler1: 4.64 KB object code size  1.4/0.6/[0.4]
Matrix Compiler2: 6.46 KB object code size  0.8/1.1/[0.5]


