Circuit: * C:\Gedeeld\Project\Git\Normalization\LTspice\Test.asc

WARNING: Node U1:1:U11:VP1 is floating.
WARNING: Node U1:1:14 is floating.
WARNING: Node U1:1:U11:VP2 is floating.
WARNING: Node U1:1:U11:VP3 is floating.
WARNING: Node U1:1:U11:VP4 is floating.
WARNING: Node U1:1:U11:VZ1 is floating.
WARNING: Node U1:1:U11:VZ2 is floating.
WARNING: Node U1:1:U11:VZ3 is floating.
WARNING: Node U1:1:U11:VZ4 is floating.
WARNING: Node U1:1:9 is floating.

<<<<<<< HEAD
=======
<<<<<<< HEAD
Direct Newton iteration for .op point succeeded.

Date: Fri Mar 23 14:17:24 2018
Total elapsed time: 0.200 seconds.
=======
<<<<<<< HEAD
Date: Fri Mar 23 14:30:55 2018
Total elapsed time: 0.062 seconds.
=======
>>>>>>> 12ed782170899327ca1b795852dbd7d1c25a6100
Direct Newton iteration failed to find .op point.  (Use ".option noopiter" to skip.)
Starting Gmin stepping
Gmin = 10
Gmin = 1.07374
Gmin = 0.115292
Gmin = 0.0123794
Gmin = 0.00132923
Gmin = 0.000142725
Gmin = 1.5325e-005
Gmin = 1.6455e-006
Gmin = 1.76685e-007
Gmin = 1.89714e-008
Gmin = 2.03704e-009
Gmin = 2.18725e-010
Gmin = 2.34854e-011
Gmin = 2.52173e-012
Gmin = 2.70769e-013
Gmin = 0
Gmin stepping succeeded in finding the operating point.


<<<<<<< HEAD
Date: Fri Mar 23 14:39:45 2018
Total elapsed time: 0.199 seconds.
=======
Date: Fri Mar 23 12:18:53 2018
Total elapsed time: 16.952 seconds.
>>>>>>> 91b562f12c6223f61629e726d601d76402d0d600
>>>>>>> 57b65ae840a1928fd99ad628aadec9029092e1f0
>>>>>>> 12ed782170899327ca1b795852dbd7d1c25a6100

tnom = 27
temp = 27
method = modified trap
<<<<<<< HEAD
totiter = 12354
traniter = 11938
tranpoints = 2653
accept = 2011
rejected = 642
=======
<<<<<<< HEAD
totiter = 11307
traniter = 11260
tranpoints = 2360
accept = 1749
rejected = 611
=======
<<<<<<< HEAD
totiter = 2791
traniter = 2769
tranpoints = 720
accept = 497
rejected = 223
matrix size = 52
fillins = 20
solver = Normal
Matrix Compiler1: 2.79 KB object code size  1.1/0.6/[0.2]
Matrix Compiler2: off  [0.5]/1.3/2.6
=======
totiter = 1119718
traniter = 1119302
tranpoints = 238442
accept = 176370
rejected = 62072
>>>>>>> 57b65ae840a1928fd99ad628aadec9029092e1f0
>>>>>>> 12ed782170899327ca1b795852dbd7d1c25a6100
matrix size = 72
fillins = 37
solver = Normal
<<<<<<< HEAD
Thread vector: 27.7/6.6[2] 1.7/1.5[2] 5.1/2.5[2] 0.7/1.1[1]  2592/500
Matrix Compiler1: 4.64 KB object code size  1.7/0.6/[0.4]
Matrix Compiler2: off  [0.8]/1.1/1.9
=======
Thread vector: 9.1/8.2[2] 2.2/2.1[1] 2.5/1.8[2] 0.4/1.2[1]  2592/500
Matrix Compiler1: 4.41 KB object code size  1.2/0.5/[0.3]
Matrix Compiler2: 6.43 KB object code size  0.6/1.0/[0.5]

>>>>>>> 91b562f12c6223f61629e726d601d76402d0d600
>>>>>>> 12ed782170899327ca1b795852dbd7d1c25a6100

