Circuit: * D:\GitHub\ouisician\Normalization\LTspice\Test.asc

WARNING: Node U1:1:U11:VP1 is floating.
WARNING: Node U1:1:14 is floating.
WARNING: Node U1:1:U11:VP2 is floating.
WARNING: Node U1:1:U11:VP3 is floating.
WARNING: Node U1:1:U11:VP4 is floating.
WARNING: Node U1:1:U11:VZ1 is floating.
WARNING: Node U1:1:U11:VZ2 is floating.
WARNING: Node U1:1:U11:VZ3 is floating.
WARNING: Node U1:1:U11:VZ4 is floating.
WARNING: Node U1:1:9 is floating.

Direct Newton iteration for .op point succeeded.

Date: Fri Mar 23 14:17:24 2018
Total elapsed time: 0.200 seconds.

tnom = 27
temp = 27
method = modified trap
totiter = 11307
traniter = 11260
tranpoints = 2360
accept = 1749
rejected = 611
matrix size = 72
fillins = 37
solver = Normal
Thread vector: 9.1/8.2[2] 2.2/2.1[1] 2.5/1.8[2] 0.4/1.2[1]  2592/500
Matrix Compiler1: 4.41 KB object code size  1.2/0.5/[0.3]
Matrix Compiler2: 6.43 KB object code size  0.6/1.0/[0.5]


