Circuit: * C:\Gedeeld\Project\Git\Normalization\LTspice\Test.asc

Direct Newton iteration for .op point succeeded.

Date: Fri Mar 23 14:30:55 2018
Total elapsed time: 0.062 seconds.

tnom = 27
temp = 27
method = modified trap
totiter = 2791
traniter = 2769
tranpoints = 720
accept = 497
rejected = 223
matrix size = 52
fillins = 20
solver = Normal
Matrix Compiler1: 2.79 KB object code size  1.1/0.6/[0.2]
Matrix Compiler2: off  [0.5]/1.3/2.6

