Circuit: * C:\Gedeeld\Project\Git\Normalization\LTspice\Test.asc

WARNING: Node U1:1:U11:VP1 is floating.
WARNING: Node U1:1:14 is floating.
WARNING: Node U1:1:U11:VP2 is floating.
WARNING: Node U1:1:U11:VP3 is floating.
WARNING: Node U1:1:U11:VP4 is floating.
WARNING: Node U1:1:U11:VZ1 is floating.
WARNING: Node U1:1:U11:VZ2 is floating.
WARNING: Node U1:1:U11:VZ3 is floating.
WARNING: Node U1:1:U11:VZ4 is floating.
WARNING: Node U1:1:9 is floating.

Direct Newton iteration failed to find .op point.  (Use ".option noopiter" to skip.)
Starting Gmin stepping
Gmin = 10
Gmin = 1.07374
vernier = 0.5
vernier = 0.25
vernier = 0.125
Gmin = 0.760209
vernier = 0.0625
vernier = 0.0833333
Gmin = 0.668053
vernier = 0.111111
vernier = 0.148148
Gmin = 0.505728
vernier = 0.197531
Gmin = 0.327444
vernier = 0.263374
vernier = 0.351165
Gmin = 0.159512
vernier = 0.46822
vernier = 0.624294
Gmin = 0.0519139
vernier = 0.832392
Gmin = 0.00934823
vernier = 1
Gmin = 0.00100376
Gmin = 0.000107778
Gmin = 1.15726e-005
Gmin = 1.24259e-006
Gmin = 1.33422e-007
Gmin = 1.43261e-008
Gmin = 1.53826e-009
Gmin = 1.65169e-010
Gmin = 1.77349e-011
Gmin = 1.90427e-012
Gmin = 2.04469e-013
Gmin = 0
Gmin stepping succeeded in finding the operating point.


Date: Fri Mar 23 12:11:48 2018
Total elapsed time: 0.335 seconds.

tnom = 27
temp = 27
method = trap
totiter = 1011
traniter = 0
tranpoints = 0
accept = 0
rejected = 0
matrix size = 72
fillins = 36
solver = Normal
Matrix Compiler1:     272 opcodes
Matrix Compiler2: off  [0.7]/1.5/0.9

