Circuit: * C:\Gedeeld\Project\Git\TriangleWave\Triangular_signal_generator_simulation.asc

Per .tran options, skipping operating point for transient analysis.

Date: Mon Apr 16 11:45:18 2018
Total elapsed time: 1.592 seconds.

tnom = 27
temp = 27
method = modified trap
totiter = 545578
traniter = 545578
tranpoints = 183980
accept = 129630
rejected = 54350
matrix size = 11
fillins = 2
solver = Normal
Matrix Compiler1: 664 bytes object code size  0.3/0.1/[0.0]
Matrix Compiler2: off  [0.1]/0.2/0.1

